BOX TYPE: RECTILINEAR,
 -----------------------------------------------------------------------------
    2.  CONTROL  DATA  FOR  THE  RUN
 -----------------------------------------------------------------------------
  Amber topology and parameter file for the molecule set bpti_box
 General flags:
      imin  =        0
 Nature and format of input:
      ntx   =        1   irest  =        0
 Nature and format of output:
  Rst file fmt = Formatted   ntpr   =       10  ntwr  =      100
      iwrap =        1   ntwx   =        0  ntwv  =        0 ntwe  =       10
  Trj file fmt = Formatted   ntwprt   =       0   rbornstat  =      0
 Potential function:
      ntf   =        1   ntb    =        2  igb   =        0 nsnb  =       25
      gbsa    =        0
      dielc =    1.00000  vdw_cutoff =   12.00000  intdiel =    1.00000
      scnb =    2.00000  scee =    1.20000
 Frozen or restrained atoms:
      ibelly  =        0   ntr  =        0
 Molecular dynamics:
      nstlim =     1000 nscm    =     1000   nrespa  =        1
      dt     =    0.00100  vlimit =   20.00000
 Langevin dynamics temperature regulation:
      ig =    71277
      temp0 =  300.00000  tempi =  300.00000  gamma_ln =    5.00000
 Pressure regulation:
      ntp =        1
      pres0 =    1.00000  comp =   44.60000  taup =    1.00000
 Ewald parameters:
      pme_verbose =        0
      vdw_correction_flag =        1   netfrc  =        1
      Box X =   45.00000  Box Y =   45.00000  Box Z =   45.00000
      Alpha =   90.00000  Beta  =   90.00000  Gamma =   90.00000
      pme_grid_nx =       48   pme_grid_ny =       45  pme_grid_nz =       45
      Cutoff =   12.00000  Tol   =    0.00001
      Ewald Coefficient =    0.22664
      Interpolation order =     4

 File Assignments:
  MDOUT = bpti_box.out   RESTRT = bpti_box.rst
  REFC =    refc.dat
  MDVEL = bpti_box.mdvel   MDEN = bpti_box.mden
  MDCRD = bpti_box.mdcrd

 ---------------
   RESULTS
 -----------------

  NSTEP =         0 TIME(PS) =       0.000 TEMP(K) =   75.61 PRESS =     0.0
  Etot = -13214.23015208741 EKtot =   1412.51994774489
  EPtot = -14626.75009983229
  BOND =    108.16043524464  ANGLE =    190.95720255238
  DIHED =    524.58316611081
  1-4 NB =    236.84931421799  1-4 EEL =   1799.50811639180
  VDWAALS =   1197.70278046432
  EELEC = -18684.51111481425 EHBOND =      0.00000000000
  RESTRAINT =      0.00000000000
  EKCMT =   1635.52503315233  VIRIAL  =   4882.94260476388
  VOLUME =  91125.00000000000
                                   Density    =      0.70675410806
  Ewald error estimate:  5.69474767584e-04
 ----------------------------------------------------------------------------

  NSTEP =        10 TIME(PS) =       0.010 TEMP(K) =  310.00 PRESS = -2132.3
  Etot =  -7573.15235404442 EKtot =   5791.10887079416
  EPtot = -13364.26122483858
  BOND =   1794.49982432150  ANGLE =    790.56668926236
  DIHED =    584.34165251512
  1-4 NB =    238.99050108464  1-4 EEL =   1772.80667087411
  VDWAALS =   1241.53956548980
  EELEC = -19787.00612838610 EHBOND =      0.00000000000
  RESTRAINT =      0.00000000000
  EKCMT =   1927.90351206223  VIRIAL  =   6119.17460062051
  VOLUME =  91037.17658406810
                                   Density    =      0.70743591260
  Ewald error estimate:  3.11891012505e-04
 ----------------------------------------------------------------------------

  NSTEP =        20 TIME(PS) =       0.020 TEMP(K) =  293.71 PRESS = -2248.7
  Etot =  -7686.93656293887 EKtot =   5486.76976091775
  EPtot = -13173.70632385662
  BOND =   2521.67477916453  ANGLE =   1054.78874711916
  DIHED =    604.59636108737
  1-4 NB =    238.79068517785  1-4 EEL =   1699.48803772676
  VDWAALS =   1395.43605112585
  EELEC = -20688.48098525814 EHBOND =      0.00000000000
  RESTRAINT =      0.00000000000
  EKCMT =   1834.60060064721  VIRIAL  =   6250.63016437617
  VOLUME =  90952.56513260464
                                   Density    =      0.70809402685
  Ewald error estimate:  2.50328536196e-04
 ----------------------------------------------------------------------------

  NSTEP =        30 TIME(PS) =       0.030 TEMP(K) =  318.05 PRESS = -2370.8
  Etot =  -7877.03370481672 EKtot =   5941.45796066476
  EPtot = -13818.49166548148
  BOND =   2304.51097617584  ANGLE =   1099.09032911147
  DIHED =    591.63203582219
  1-4 NB =    229.76138719394  1-4 EEL =   1702.94001474341
  VDWAALS =   1497.34319616822
  EELEC = -21243.76960469656 EHBOND =      0.00000000000
  RESTRAINT =      0.00000000000
  EKCMT =   1814.59687485024  VIRIAL  =   6466.83949253001
  VOLUME =  90883.45155202781
                                   Density    =      0.70863250677
  Ewald error estimate:  1.61630338812e-04
 ----------------------------------------------------------------------------

  NSTEP =        40 TIME(PS) =       0.040 TEMP(K) =  352.96 PRESS = -2297.7
  Etot =  -8047.49655773962 EKtot =   6593.54293879677
  EPtot = -14641.03949653639
  BOND =   1623.10666738037  ANGLE =    961.71183733492
  DIHED =    587.63933140819
  1-4 NB =    211.61094635730  1-4 EEL =   1727.29089796428
  VDWAALS =   1533.54201962704
  EELEC = -21285.94119660849 EHBOND =      0.00000000000
  RESTRAINT =      0.00000000000
  EKCMT =   1849.24149633640  VIRIAL  =   6354.65303827800
  VOLUME =  90815.86035256032
                                   Density    =      0.70915991818
  Ewald error estimate:  2.30125018204e-04
 ----------------------------------------------------------------------------

  NSTEP =        50 TIME(PS) =       0.050 TEMP(K) =  335.88 PRESS = -1965.6
  Etot =  -8024.54318285479 EKtot =   6274.41399743148
  EPtot = -14298.95718028627
  BOND =   1812.56867874624  ANGLE =    847.03734061636
  DIHED =    592.58392995815
  1-4 NB =    201.99222992794  1-4 EEL =   1666.38738576190
  VDWAALS =   1543.45968803714
  EELEC = -20962.98643333401 EHBOND =      0.00000000000
  RESTRAINT =      0.00000000000
  EKCMT =   1888.52603127438  VIRIAL  =   5739.81663221764
  VOLUME =  90748.37283790512
                                   Density    =      0.70968730439
  Ewald error estimate:  3.50492535658e-04
 ----------------------------------------------------------------------------

  NSTEP =        60 TIME(PS) =       0.060 TEMP(K) =  303.87 PRESS = -1476.0
  Etot =  -7918.62238428846 EKtot =   5676.51498949423
  EPtot = -13595.13737378270
  BOND =   2179.12823716975  ANGLE =    793.37711076016
  DIHED =    586.20230963308
  1-4 NB =    191.87956204734  1-4 EEL =   1673.98682595349
  VDWAALS =   1551.11750317314
  EELEC = -20570.82892251964 EHBOND =      0.00000000000
  RESTRAINT =      0.00000000000
  EKCMT =   1937.87057004328  VIRIAL  =   4827.65798229996
  VOLUME =  90677.37750222528
                                   Density    =      0.71024295002
  Ewald error estimate:  5.24397236139e-04
 ----------------------------------------------------------------------------

  NSTEP =        70 TIME(PS) =       0.070 TEMP(K) =  305.30 PRESS = -1037.1
  Etot =  -7910.98370095819 EKtot =   5703.19209934165
  EPtot = -13614.17580029984
  BOND =   1904.40033438685  ANGLE =    706.89940229627
  DIHED =    591.50688840831
  1-4 NB =    195.04229469299  1-4 EEL =   1674.65646473244
  VDWAALS =   1600.11517074980
  EELEC = -20286.79635556650 EHBOND =      0.00000000000
  RESTRAINT =      0.00000000000
  EKCMT =   1932.17418699720  VIRIAL  =   3961.06414950675
  VOLUME =  90610.39099583913
                                   Density    =      0.71076801887
  Ewald error estimate:  6.56013060238e-04
 ----------------------------------------------------------------------------

  NSTEP =        80 TIME(PS) =       0.080 TEMP(K) =  323.87 PRESS =  -860.8
  Etot =  -7962.97954160716 EKtot =   6050.11675329189
  EPtot = -14013.09629489905
  BOND =   1607.09499370516  ANGLE =    610.12301156889
  DIHED =    593.81824023414
  1-4 NB =    183.85836961461  1-4 EEL =   1685.57988947060
  VDWAALS =   1656.23686199316
  EELEC = -20349.80766148560 EHBOND =      0.00000000000
  RESTRAINT =      0.00000000000
  EKCMT =   1912.03732283516  VIRIAL  =   3594.86063500855
  VOLUME =  90548.23738122612
                                   Density    =      0.71125590028
  Ewald error estimate:  6.35404560529e-04
 ----------------------------------------------------------------------------

  NSTEP =        90 TIME(PS) =       0.090 TEMP(K) =  328.60 PRESS = -1193.5
  Etot =  -8072.55891809101 EKtot =   6138.40786094943
  EPtot = -14210.96677904044
  BOND =   1793.24924314811  ANGLE =    699.39178313949
  DIHED =    590.46130097196
  1-4 NB =    184.15686490453  1-4 EEL =   1683.12666615432
  VDWAALS =   1687.71397814743
  EELEC = -20849.06661550629 EHBOND =      0.00000000000
  RESTRAINT =      0.00000000000
  EKCMT =   1886.10754861761  VIRIAL  =   4218.03697318193
  VOLUME =  90489.68969242445
                                   Density    =      0.71171608960
  Ewald error estimate:  4.99884967456e-04
 ----------------------------------------------------------------------------
 wrapping first mol.:   44.884689135612142        0.0000000000000000        44.884689135612142

  NSTEP =       100 TIME(PS) =       0.100 TEMP(K) =  325.67 PRESS = -1500.7
  Etot =  -8151.41810920210 EKtot =   6083.74970185936
  EPtot = -14235.16781106146
  BOND =   1917.45771463544  ANGLE =    992.24060484411
  DIHED =    587.05016516139
  1-4 NB =    186.22900105976  1-4 EEL =   1695.57721527865
  VDWAALS =   1719.41384128590
  EELEC = -21333.13635332672 EHBOND =      0.00000000000
  RESTRAINT =      0.00000000000
  EKCMT =   1891.85245436536  VIRIAL  =   4821.97890987490
  VOLUME =  90432.33665897636
                                   Density    =      0.71216746660
  Ewald error estimate:  3.89422236075e-04
 ----------------------------------------------------------------------------

  NSTEP =       110 TIME(PS) =       0.110 TEMP(K) =  326.20 PRESS = -1876.9
  Etot =  -8224.47941896299 EKtot =   6093.65967870752
  EPtot = -14318.13909767051
  BOND =   1999.47624471939  ANGLE =   1162.84785871061
  DIHED =    593.02266723922
  1-4 NB =    193.48036264194  1-4 EEL =   1673.48682811877
  VDWAALS =   1705.08333666004
  EELEC = -21645.53639576047 EHBOND =      0.00000000000
  RESTRAINT =      0.00000000000
  EKCMT =   1897.00122503306  VIRIAL  =   5559.57654574166
  VOLUME =  90377.68604254931
                                   Density    =      0.71259810820
  Ewald error estimate:  5.05543364686e-04
 ----------------------------------------------------------------------------

  NSTEP =       120 TIME(PS) =       0.120 TEMP(K) =  321.76 PRESS = -2085.6
  Etot =  -8199.44999361974 EKtot =   6010.75894530132
  EPtot = -14210.20893892106
  BOND =   2314.42756850383  ANGLE =   1122.57167260066
  DIHED =    595.67176526095
  1-4 NB =    192.43159051824  1-4 EEL =   1670.11957666060
  VDWAALS =   1682.71207929619
  EELEC = -21788.14319176154 EHBOND =      0.00000000000
  RESTRAINT =      0.00000000000
  EKCMT =   1888.04213356047  VIRIAL  =   5954.91744676990
  VOLUME =  90315.28140263555
                                   Density    =      0.71309048809
  Ewald error estimate:  4.16935318482e-04
 ----------------------------------------------------------------------------

  NSTEP =       130 TIME(PS) =       0.130 TEMP(K) =  316.83 PRESS = -1885.3
  Etot =  -8142.23828063538 EKtot =   5918.64357200467
  EPtot = -14060.88185264005
  BOND =   2466.77726494666  ANGLE =    934.85604652086
  DIHED =    594.14262263077
  1-4 NB =    191.60221110333  1-4 EEL =   1682.76711211688
  VDWAALS =   1681.61814894766
  EELEC = -21612.64525890621 EHBOND =      0.00000000000
  RESTRAINT =      0.00000000000
  EKCMT =   1909.93004168478  VIRIAL  =   5583.66544624949
  VOLUME =  90248.27326902597
                                   Density    =      0.71361994822
  Ewald error estimate:  3.71318388923e-04
 ----------------------------------------------------------------------------

  NSTEP =       140 TIME(PS) =       0.140 TEMP(K) =  322.83 PRESS = -1528.8
  Etot =  -8164.67989247808 EKtot =   6030.66698558494
  EPtot = -14195.34687806302
  BOND =   2211.54884510805  ANGLE =    796.60582019400
  DIHED =    589.98923426679
  1-4 NB =    196.47593127899  1-4 EEL =   1664.02671301461
  VDWAALS =   1684.03280008109
  EELEC = -21338.02622200655 EHBOND =      0.00000000000
  RESTRAINT =      0.00000000000
  EKCMT =   1907.93218084400  VIRIAL  =   4884.73169060833
  VOLUME =  90180.22317227030
                                   Density    =      0.71415844663
  Ewald error estimate:  6.12923180089e-04
 ----------------------------------------------------------------------------

  NSTEP =       150 TIME(PS) =       0.150 TEMP(K) =  322.25 PRESS = -1156.5
  Etot =  -8260.59006577071 EKtot =   6019.79903038598
  EPtot = -14280.38909615669
  BOND =   1973.75091184318  ANGLE =    744.45428712854
  DIHED =    589.32231014494
  1-4 NB =    201.54133953749  1-4 EEL =   1661.05041500075
  VDWAALS =   1696.17665255726
  EELEC = -21146.68501236885 EHBOND =      0.00000000000
  RESTRAINT =      0.00000000000
  EKCMT =   1929.88871224682  VIRIAL  =   4180.03274443491
  VOLUME =  90115.86264428376
                                   Density    =      0.71466849684
  Ewald error estimate:  6.04041357919e-04
 ----------------------------------------------------------------------------

  NSTEP =       160 TIME(PS) =       0.160 TEMP(K) =  319.29 PRESS =  -924.3
  Etot =  -8390.32518813387 EKtot =   5964.49236101971
  EPtot = -14354.81754915357
  BOND =   1909.46114015373  ANGLE =    711.67506993978
  DIHED =    593.38508886949
  1-4 NB =    212.36708358912  1-4 EEL =   1654.08441101763
  VDWAALS =   1707.92534311903
  EELEC = -21143.71568584235 EHBOND =      0.00000000000
  RESTRAINT =      0.00000000000
  EKCMT =   1926.32270708723  VIRIAL  =   3723.60901738060
  VOLUME =  90058.39019367429
                                   Density    =      0.71512457594
  Ewald error estimate:  5.21348701456e-04
 ----------------------------------------------------------------------------

  NSTEP =       170 TIME(PS) =       0.170 TEMP(K) =  330.17 PRESS =  -894.8
  Etot =  -8479.98269966772 EKtot =   6167.81092593650
  EPtot = -14647.79362560423
  BOND =   1880.75142832970  ANGLE =    734.53813765907
  DIHED =    590.27683860392
  1-4 NB =    206.47945231345  1-4 EEL =   1678.84464712966
  VDWAALS =   1733.70910216358
  EELEC = -21472.39323180359 EHBOND =      0.00000000000
  RESTRAINT =      0.00000000000
  EKCMT =   1903.65358285065  VIRIAL  =   3642.69817914885
  VOLUME =  90010.18128403036
                                   Density    =      0.71550759235
  Ewald error estimate:  5.01756089452e-04
 ----------------------------------------------------------------------------

  NSTEP =       180 TIME(PS) =       0.180 TEMP(K) =  334.27 PRESS = -1330.2
  Etot =  -8484.68720701514 EKtot =   6244.44297606235
  EPtot = -14729.13018307750
  BOND =   2014.69591796445  ANGLE =    872.49365757425
  DIHED =    599.19132483956
  1-4 NB =    204.36843173783  1-4 EEL =   1667.68975203402
  VDWAALS =   1719.07611652828
  EELEC = -21806.64538375589 EHBOND =      0.00000000000
  RESTRAINT =      0.00000000000
  EKCMT =   1916.85895569253  VIRIAL  =   4500.69468250806
  VOLUME =  89963.94352359530
                                   Density    =      0.71587533377
  Ewald error estimate:  4.44675624684e-04
 ----------------------------------------------------------------------------
      A V E R A G E S   O V E R       181    S T E P S

  NSTEP =       181 TIME(PS) =       0.181 TEMP(K) =  321.34 PRESS = -1601.1
  Etot =  -8070.91281631106 EKtot =   6002.78783623462
  EPtot = -14073.70065254568
  BOND =   1980.36902947690  ANGLE =    858.64382558364
  DIHED =    590.29766400976
  1-4 NB =    204.21897063182  1-4 EEL =   1689.04360196616
  VDWAALS =   1600.28215268339
  EELEC = -20996.55589689735 EHBOND =      0.00000000000
  RESTRAINT =      0.00000000000
  EKCMT =   1897.49630068947  VIRIAL  =   5027.48575051832
  VOLUME =  90496.60600003898
                                   Density    =      0.71167132545
  Ewald error estimate:  4.26591668997e-04
 ----------------------------------------------------------------------------
      R M S  F L U C T U A T I O N S

  NSTEP =       181 TIME(PS) =       0.181 TEMP(K) =   12.38 PRESS =   445.6
  Etot =    617.29753171902 EKtot =    231.21421179463
  EPtot =    386.08331992439
  BOND =    404.95629664886  ANGLE =    209.48817968324
  DIHED =     11.17171257276
  1-4 NB =     17.17175214032  1-4 EEL =     33.31055653015
  VDWAALS =    143.33334793989
  EELEC =    676.38029656547 EHBOND =      0.00000000000
  RESTRAINT =      0.00000000000
  EKCMT =     39.72024474049  VIRIAL  =    875.82284897701
  VOLUME =    332.95477424695
                                   Density    =      0.00261731719
  Ewald error estimate:  1.53283975903e-04
 ----------------------------------------------------------------------------
